5R82_ligand.pdb


 12 12  0  0  0  0  0  0  0  0999 V2000
   12.2818    0.4872   23.5533 C   0  0  0  0  0  0  0  0  0  0  0  0
   11.5353    2.4891   22.6853 C   0  0  0  0  0  0  0  0  0  0  0  0
   10.2989    1.9294   22.3872 C   0  0  0  0  0  0  0  0  0  0  0  0
   10.0578    0.5979   22.6907 C   0  0  0  0  0  0  0  0  0  0  0  0
   11.0729   -0.1413   23.2878 C   0  0  0  0  0  0  0  0  0  0  0  0
   12.4810    1.7649   23.2482 N   0  0  0  0  0  0  0  0  0  0  0  0
   10.8638   -1.6041   23.6585 C   0  0  0  0  0  0  0  0  0  0  0  0
   10.7150   -2.6952   23.9502 N   0  0  0  0  0  0  0  0  0  0  0  0
   11.8484    3.8658   22.3762 N   0  0  0  0  0  0  0  0  0  0  0  0
   11.2891    4.3357   21.7161 H   0  0  0  0  0  0  0  0  0  0  0  0
   13.6135    5.4132   21.8998 C   0  0  0  0  0  0  0  0  0  0  0  0
   12.9430    4.5885   22.9882 C   0  0  0  0  0  0  0  0  0  0  0  0
  1  6  1  0  0  0
 12 11  1  0  0  0
  2  9  1  0  0  0
  3  2  1  0  0  0
  4  3  2  0  0  0
  5  4  1  0  0  0
  5  1  2  0  0  0
  7  5  1  0  0  0
  9 12  1  0  0  0
  9 10  1  0  0  0
  8  7  3  0  0  0
  6  2  2  0  0  0
M  END
> <minimizedAffinity>
-4.36088

$$$$
5R82_ligand.pdb


 12 12  0  0  0  0  0  0  0  0999 V2000
    9.8778    1.7225   22.1809 C   0  0  0  0  0  0  0  0  0  0  0  0
    8.3128    0.6087   20.9046 C   0  0  0  0  0  0  0  0  0  0  0  0
    8.8776   -0.6174   21.2340 C   0  0  0  0  0  0  0  0  0  0  0  0
    9.9826   -0.6607   22.0709 C   0  0  0  0  0  0  0  0  0  0  0  0
   10.4954    0.5372   22.5560 C   0  0  0  0  0  0  0  0  0  0  0  0
    8.8210    1.7292   21.3757 N   0  0  0  0  0  0  0  0  0  0  0  0
   11.6982    0.5540   23.4908 C   0  0  0  0  0  0  0  0  0  0  0  0
   12.6010    0.5510   24.1857 N   0  0  0  0  0  0  0  0  0  0  0  0
    7.1719    0.7155   20.0238 N   0  0  0  0  0  0  0  0  0  0  0  0
    6.9664    1.5939   19.6294 H   0  0  0  0  0  0  0  0  0  0  0  0
    5.8413   -0.2098   18.2603 C   0  0  0  0  0  0  0  0  0  0  0  0
    6.3163   -0.4039   19.6925 C   0  0  0  0  0  0  0  0  0  0  0  0
  1  6  1  0  0  0
 12 11  1  0  0  0
  2  9  1  0  0  0
  3  2  1  0  0  0
  4  3  2  0  0  0
  5  4  1  0  0  0
  5  1  2  0  0  0
  7  5  1  0  0  0
  9 12  1  0  0  0
  9 10  1  0  0  0
  8  7  3  0  0  0
  6  2  2  0  0  0
M  END
> <minimizedAffinity>
-4.13515

$$$$
5R82_ligand.pdb


 12 12  0  0  0  0  0  0  0  0999 V2000
    7.6260   -2.0452   22.1984 C   0  0  0  0  0  0  0  0  0  0  0  0
    6.7222   -0.5962   20.6484 C   0  0  0  0  0  0  0  0  0  0  0  0
    7.9443    0.0478   20.4983 C   0  0  0  0  0  0  0  0  0  0  0  0
    9.0407   -0.3825   21.2304 C   0  0  0  0  0  0  0  0  0  0  0  0
    8.8783   -1.4542   22.1014 C   0  0  0  0  0  0  0  0  0  0  0  0
    6.5952   -1.6074   21.4835 N   0  0  0  0  0  0  0  0  0  0  0  0
   10.0484   -1.9822   22.9218 C   0  0  0  0  0  0  0  0  0  0  0  0
   10.9244   -2.3624   23.5430 N   0  0  0  0  0  0  0  0  0  0  0  0
    5.5423   -0.1805   19.9247 N   0  0  0  0  0  0  0  0  0  0  0  0
    4.8004   -0.8211   19.8324 H   0  0  0  0  0  0  0  0  0  0  0  0
    5.7851    1.0134   17.8625 C   0  0  0  0  0  0  0  0  0  0  0  0
    5.3965    1.1304   19.3287 C   0  0  0  0  0  0  0  0  0  0  0  0
  1  6  1  0  0  0
 12 11  1  0  0  0
  2  9  1  0  0  0
  3  2  1  0  0  0
  4  3  2  0  0  0
  5  4  1  0  0  0
  5  1  2  0  0  0
  7  5  1  0  0  0
  9 12  1  0  0  0
  9 10  1  0  0  0
  8  7  3  0  0  0
  6  2  2  0  0  0
M  END
> <minimizedAffinity>
-4.09112

$$$$
5R82_ligand.pdb


 12 12  0  0  0  0  0  0  0  0999 V2000
    8.4416   -3.2870   23.3457 C   0  0  0  0  0  0  0  0  0  0  0  0
    9.4440   -1.6462   22.0723 C   0  0  0  0  0  0  0  0  0  0  0  0
   10.5855   -1.6923   22.8634 C   0  0  0  0  0  0  0  0  0  0  0  0
   10.6446   -2.5751   23.9313 C   0  0  0  0  0  0  0  0  0  0  0  0
    9.5469   -3.3920   24.1789 C   0  0  0  0  0  0  0  0  0  0  0  0
    8.4166   -2.4292   22.3314 N   0  0  0  0  0  0  0  0  0  0  0  0
    9.5572   -4.3923   25.3279 C   0  0  0  0  0  0  0  0  0  0  0  0
    9.5714   -5.1288   26.1968 N   0  0  0  0  0  0  0  0  0  0  0  0
    9.3198   -0.7346   20.9577 N   0  0  0  0  0  0  0  0  0  0  0  0
    9.9891   -0.7831   20.2372 H   0  0  0  0  0  0  0  0  0  0  0  0
    7.5977    0.0540   19.4917 C   0  0  0  0  0  0  0  0  0  0  0  0
    8.2610    0.2460   20.8473 C   0  0  0  0  0  0  0  0  0  0  0  0
  1  6  1  0  0  0
 12 11  1  0  0  0
  2  9  1  0  0  0
  3  2  1  0  0  0
  4  3  2  0  0  0
  5  4  1  0  0  0
  5  1  2  0  0  0
  7  5  1  0  0  0
  9 12  1  0  0  0
  9 10  1  0  0  0
  8  7  3  0  0  0
  6  2  2  0  0  0
M  END
> <minimizedAffinity>
-3.96590

$$$$
5R82_ligand.pdb


 12 12  0  0  0  0  0  0  0  0999 V2000
    7.1776    0.0658   21.2480 C   0  0  0  0  0  0  0  0  0  0  0  0
    9.4221   -0.3119   21.6201 C   0  0  0  0  0  0  0  0  0  0  0  0
    9.6248    1.0290   21.9229 C   0  0  0  0  0  0  0  0  0  0  0  0
    8.5545    1.9101   21.8849 C   0  0  0  0  0  0  0  0  0  0  0  0
    7.3010    1.4175   21.5391 C   0  0  0  0  0  0  0  0  0  0  0  0
    8.2242   -0.7515   21.2922 N   0  0  0  0  0  0  0  0  0  0  0  0
    6.0839    2.3326   21.4942 C   0  0  0  0  0  0  0  0  0  0  0  0
    5.1653    3.0059   21.4694 N   0  0  0  0  0  0  0  0  0  0  0  0
   10.5028   -1.2714   21.6268 N   0  0  0  0  0  0  0  0  0  0  0  0
   10.6546   -1.8104   20.8170 H   0  0  0  0  0  0  0  0  0  0  0  0
   10.6260   -2.3550   23.7593 C   0  0  0  0  0  0  0  0  0  0  0  0
   11.3733   -1.4799   22.7643 C   0  0  0  0  0  0  0  0  0  0  0  0
  1  6  1  0  0  0
 12 11  1  0  0  0
  2  9  1  0  0  0
  3  2  1  0  0  0
  4  3  2  0  0  0
  5  4  1  0  0  0
  5  1  2  0  0  0
  7  5  1  0  0  0
  9 12  1  0  0  0
  9 10  1  0  0  0
  8  7  3  0  0  0
  6  2  2  0  0  0
M  END
> <minimizedAffinity>
-3.95493

$$$$
5R82_ligand.pdb


 12 12  0  0  0  0  0  0  0  0999 V2000
   10.7456   -2.2747   23.8546 C   0  0  0  0  0  0  0  0  0  0  0  0
    8.7100   -2.8282   22.9226 C   0  0  0  0  0  0  0  0  0  0  0  0
    8.8318   -1.8091   21.9858 C   0  0  0  0  0  0  0  0  0  0  0  0
    9.9590   -1.0013   21.9939 C   0  0  0  0  0  0  0  0  0  0  0  0
   10.9394   -1.2391   22.9508 C   0  0  0  0  0  0  0  0  0  0  0  0
    9.6528   -3.0295   23.8207 N   0  0  0  0  0  0  0  0  0  0  0  0
   12.2068   -0.3953   23.0014 C   0  0  0  0  0  0  0  0  0  0  0  0
   13.1632    0.2222   23.0432 N   0  0  0  0  0  0  0  0  0  0  0  0
    7.5506   -3.6895   22.9724 N   0  0  0  0  0  0  0  0  0  0  0  0
    6.6628   -3.2870   22.8344 H   0  0  0  0  0  0  0  0  0  0  0  0
    7.3005   -5.8208   21.9084 C   0  0  0  0  0  0  0  0  0  0  0  0
    7.6290   -5.1143   23.2151 C   0  0  0  0  0  0  0  0  0  0  0  0
  1  6  1  0  0  0
 12 11  1  0  0  0
  2  9  1  0  0  0
  3  2  1  0  0  0
  4  3  2  0  0  0
  5  4  1  0  0  0
  5  1  2  0  0  0
  7  5  1  0  0  0
  9 12  1  0  0  0
  9 10  1  0  0  0
  8  7  3  0  0  0
  6  2  2  0  0  0
M  END
> <minimizedAffinity>
-3.93765

$$$$
5R82_ligand.pdb


 12 12  0  0  0  0  0  0  0  0999 V2000
   10.4716    1.6550   22.3917 C   0  0  0  0  0  0  0  0  0  0  0  0
   10.6735   -0.6415   22.3288 C   0  0  0  0  0  0  0  0  0  0  0  0
   11.9712   -0.5676   22.8199 C   0  0  0  0  0  0  0  0  0  0  0  0
   12.5270    0.6705   23.1052 C   0  0  0  0  0  0  0  0  0  0  0  0
   11.7596    1.8091   22.8860 C   0  0  0  0  0  0  0  0  0  0  0  0
    9.9695    0.4537   22.1271 N   0  0  0  0  0  0  0  0  0  0  0  0
   12.3090    3.1963   23.1940 C   0  0  0  0  0  0  0  0  0  0  0  0
   12.7069    4.2364   23.4343 N   0  0  0  0  0  0  0  0  0  0  0  0
   10.0494   -1.9024   21.9979 N   0  0  0  0  0  0  0  0  0  0  0  0
   10.4038   -2.4135   21.2347 H   0  0  0  0  0  0  0  0  0  0  0  0
    9.4649   -2.9886   24.0511 C   0  0  0  0  0  0  0  0  0  0  0  0
    8.9295   -2.4516   22.7322 C   0  0  0  0  0  0  0  0  0  0  0  0
  1  6  1  0  0  0
 12 11  1  0  0  0
  2  9  1  0  0  0
  3  2  1  0  0  0
  4  3  2  0  0  0
  5  4  1  0  0  0
  5  1  2  0  0  0
  7  5  1  0  0  0
  9 12  1  0  0  0
  9 10  1  0  0  0
  8  7  3  0  0  0
  6  2  2  0  0  0
M  END
> <minimizedAffinity>
-3.93044

$$$$
5R82_ligand.pdb


 12 12  0  0  0  0  0  0  0  0999 V2000
    6.2693   -5.2995   26.0657 C   0  0  0  0  0  0  0  0  0  0  0  0
    7.7931   -5.0253   24.3565 C   0  0  0  0  0  0  0  0  0  0  0  0
    8.8533   -5.1391   25.2475 C   0  0  0  0  0  0  0  0  0  0  0  0
    8.5975   -5.3425   26.5953 C   0  0  0  0  0  0  0  0  0  0  0  0
    7.2744   -5.4245   27.0149 C   0  0  0  0  0  0  0  0  0  0  0  0
    6.5486   -5.1035   24.7816 N   0  0  0  0  0  0  0  0  0  0  0  0
    6.9297   -5.6616   28.4798 C   0  0  0  0  0  0  0  0  0  0  0  0
    6.6561   -5.8411   29.5710 N   0  0  0  0  0  0  0  0  0  0  0  0
    7.9994   -4.7958   22.9445 N   0  0  0  0  0  0  0  0  0  0  0  0
    8.9228   -4.7799   22.6034 H   0  0  0  0  0  0  0  0  0  0  0  0
    6.6660   -5.9095   21.2957 C   0  0  0  0  0  0  0  0  0  0  0  0
    6.9166   -4.5881   22.0067 C   0  0  0  0  0  0  0  0  0  0  0  0
  1  6  1  0  0  0
 12 11  1  0  0  0
  2  9  1  0  0  0
  3  2  1  0  0  0
  4  3  2  0  0  0
  5  4  1  0  0  0
  5  1  2  0  0  0
  7  5  1  0  0  0
  9 12  1  0  0  0
  9 10  1  0  0  0
  8  7  3  0  0  0
  6  2  2  0  0  0
M  END
> <minimizedAffinity>
-3.90601

$$$$
5R82_ligand.pdb


 12 12  0  0  0  0  0  0  0  0999 V2000
    6.1433   -3.6806   22.0071 C   0  0  0  0  0  0  0  0  0  0  0  0
    6.1529   -1.6537   20.9071 C   0  0  0  0  0  0  0  0  0  0  0  0
    7.3284   -1.2813   21.5478 C   0  0  0  0  0  0  0  0  0  0  0  0
    7.9241   -2.1519   22.4481 C   0  0  0  0  0  0  0  0  0  0  0  0
    7.3176   -3.3807   22.6839 C   0  0  0  0  0  0  0  0  0  0  0  0
    5.5974   -2.8230   21.1516 N   0  0  0  0  0  0  0  0  0  0  0  0
    7.9315   -4.3855   23.6504 C   0  0  0  0  0  0  0  0  0  0  0  0
    8.3757   -5.1398   24.3796 N   0  0  0  0  0  0  0  0  0  0  0  0
    5.4792   -0.7808   19.9728 N   0  0  0  0  0  0  0  0  0  0  0  0
    4.6330   -0.3616   20.2513 H   0  0  0  0  0  0  0  0  0  0  0  0
    5.6487    0.9581   18.3343 C   0  0  0  0  0  0  0  0  0  0  0  0
    5.9859   -0.4918   18.6481 C   0  0  0  0  0  0  0  0  0  0  0  0
  1  6  1  0  0  0
 12 11  1  0  0  0
  2  9  1  0  0  0
  3  2  1  0  0  0
  4  3  2  0  0  0
  5  4  1  0  0  0
  5  1  2  0  0  0
  7  5  1  0  0  0
  9 12  1  0  0  0
  9 10  1  0  0  0
  8  7  3  0  0  0
  6  2  2  0  0  0
M  END
> <minimizedAffinity>
-3.88044

$$$$
