5R82_ligand.pdb


 12 12  0  0  0  0  0  0  0  0999 V2000
   11.6359   -0.0775   24.0706 C   0  0  0  0  0  0  0  0  0  0  0  0
    9.7968   -0.9396   25.1628 C   0  0  0  0  0  0  0  0  0  0  0  0
    9.8303   -2.0825   24.3732 C   0  0  0  0  0  0  0  0  0  0  0  0
   10.8101   -2.2157   23.4008 C   0  0  0  0  0  0  0  0  0  0  0  0
   11.7350   -1.1892   23.2452 C   0  0  0  0  0  0  0  0  0  0  0  0
   10.6836    0.0197   24.9919 N   0  0  0  0  0  0  0  0  0  0  0  0
   12.8436   -1.2836   22.2046 C   0  0  0  0  0  0  0  0  0  0  0  0
   13.6764   -1.3692   21.4320 N   0  0  0  0  0  0  0  0  0  0  0  0
    8.7890   -0.7390   26.1792 N   0  0  0  0  0  0  0  0  0  0  0  0
    7.9381   -0.3187   25.9174 H   0  0  0  0  0  0  0  0  0  0  0  0
    9.3376    0.1268   28.3440 C   0  0  0  0  0  0  0  0  0  0  0  0
    8.9679   -1.1251   27.5626 C   0  0  0  0  0  0  0  0  0  0  0  0
  1  6  1  0  0  0
 12 11  1  0  0  0
  2  9  1  0  0  0
  3  2  1  0  0  0
  4  3  2  0  0  0
  5  4  1  0  0  0
  5  1  2  0  0  0
  7  5  1  0  0  0
  9 12  1  0  0  0
  9 10  1  0  0  0
  8  7  3  0  0  0
  6  2  2  0  0  0
M  END
> <minimizedAffinity>
-3.43447

$$$$
5R82_ligand.pdb


 12 12  0  0  0  0  0  0  0  0999 V2000
    8.1551    0.7402   23.0340 C   0  0  0  0  0  0  0  0  0  0  0  0
    9.6107   -0.2219   24.5420 C   0  0  0  0  0  0  0  0  0  0  0  0
   10.2212   -0.9505   23.5285 C   0  0  0  0  0  0  0  0  0  0  0  0
    9.7731   -0.8176   22.2228 C   0  0  0  0  0  0  0  0  0  0  0  0
    8.7149    0.0479   21.9690 C   0  0  0  0  0  0  0  0  0  0  0  0
    8.6073    0.5889   24.2741 N   0  0  0  0  0  0  0  0  0  0  0  0
    8.1875    0.2478   20.5538 C   0  0  0  0  0  0  0  0  0  0  0  0
    7.7785    0.3914   19.5002 N   0  0  0  0  0  0  0  0  0  0  0  0
   10.0241   -0.3332   25.9225 N   0  0  0  0  0  0  0  0  0  0  0  0
   10.9659   -0.1514   26.1446 H   0  0  0  0  0  0  0  0  0  0  0  0
    9.3958    0.2386   28.1619 C   0  0  0  0  0  0  0  0  0  0  0  0
    9.1232   -0.6984   26.9948 C   0  0  0  0  0  0  0  0  0  0  0  0
  1  6  1  0  0  0
 12 11  1  0  0  0
  2  9  1  0  0  0
  3  2  1  0  0  0
  4  3  2  0  0  0
  5  4  1  0  0  0
  5  1  2  0  0  0
  7  5  1  0  0  0
  9 12  1  0  0  0
  9 10  1  0  0  0
  8  7  3  0  0  0
  6  2  2  0  0  0
M  END
> <minimizedAffinity>
-3.42484

$$$$
5R82_ligand.pdb


 12 12  0  0  0  0  0  0  0  0999 V2000
   10.8864   -2.2037   23.3595 C   0  0  0  0  0  0  0  0  0  0  0  0
    9.7649   -1.0521   25.0132 C   0  0  0  0  0  0  0  0  0  0  0  0
   10.6379    0.0224   24.8941 C   0  0  0  0  0  0  0  0  0  0  0  0
   11.6683   -0.0307   23.9675 C   0  0  0  0  0  0  0  0  0  0  0  0
   11.7962   -1.1705   23.1814 C   0  0  0  0  0  0  0  0  0  0  0  0
    9.9110   -2.1217   24.2579 N   0  0  0  0  0  0  0  0  0  0  0  0
   12.8986   -1.2823   22.1359 C   0  0  0  0  0  0  0  0  0  0  0  0
   13.7160   -1.3536   21.3456 N   0  0  0  0  0  0  0  0  0  0  0  0
    8.6841   -1.0594   25.9728 N   0  0  0  0  0  0  0  0  0  0  0  0
    7.7865   -0.7934   25.6681 H   0  0  0  0  0  0  0  0  0  0  0  0
    9.1418   -0.1698   28.1490 C   0  0  0  0  0  0  0  0  0  0  0  0
    8.8551   -1.4381   27.3593 C   0  0  0  0  0  0  0  0  0  0  0  0
  1  6  1  0  0  0
 12 11  1  0  0  0
  2  9  1  0  0  0
  3  2  1  0  0  0
  4  3  2  0  0  0
  5  4  1  0  0  0
  5  1  2  0  0  0
  7  5  1  0  0  0
  9 12  1  0  0  0
  9 10  1  0  0  0
  8  7  3  0  0  0
  6  2  2  0  0  0
M  END
> <minimizedAffinity>
-3.37025

$$$$
5R82_ligand.pdb


 12 12  0  0  0  0  0  0  0  0999 V2000
    9.9780   -2.8324   24.6154 C   0  0  0  0  0  0  0  0  0  0  0  0
   10.8445   -1.3734   23.0537 C   0  0  0  0  0  0  0  0  0  0  0  0
   10.1635   -0.3087   23.6312 C   0  0  0  0  0  0  0  0  0  0  0  0
    9.3647   -0.5280   24.7434 C   0  0  0  0  0  0  0  0  0  0  0  0
    9.2691   -1.8202   25.2478 C   0  0  0  0  0  0  0  0  0  0  0  0
   10.7335   -2.5888   23.5500 N   0  0  0  0  0  0  0  0  0  0  0  0
    8.4194   -2.1218   26.4758 C   0  0  0  0  0  0  0  0  0  0  0  0
    7.7785   -2.3610   27.3868 N   0  0  0  0  0  0  0  0  0  0  0  0
   11.6771   -1.2072   21.8840 N   0  0  0  0  0  0  0  0  0  0  0  0
   11.2397   -1.1408   21.0044 H   0  0  0  0  0  0  0  0  0  0  0  0
   13.4860    0.0208   22.8621 C   0  0  0  0  0  0  0  0  0  0  0  0
   13.1215   -1.1336   21.9407 C   0  0  0  0  0  0  0  0  0  0  0  0
  1  6  1  0  0  0
 12 11  1  0  0  0
  2  9  1  0  0  0
  3  2  1  0  0  0
  4  3  2  0  0  0
  5  4  1  0  0  0
  5  1  2  0  0  0
  7  5  1  0  0  0
  9 12  1  0  0  0
  9 10  1  0  0  0
  8  7  3  0  0  0
  6  2  2  0  0  0
M  END
> <minimizedAffinity>
-3.25078

$$$$
5R82_ligand.pdb


 12 12  0  0  0  0  0  0  0  0999 V2000
   10.9814   -2.3278   23.6797 C   0  0  0  0  0  0  0  0  0  0  0  0
    9.2488   -1.1703   24.6681 C   0  0  0  0  0  0  0  0  0  0  0  0
    9.6909    0.0223   24.1086 C   0  0  0  0  0  0  0  0  0  0  0  0
   10.8210    0.0252   23.3047 C   0  0  0  0  0  0  0  0  0  0  0  0
   11.4824   -1.1780   23.0849 C   0  0  0  0  0  0  0  0  0  0  0  0
    9.8965   -2.2959   24.4461 N   0  0  0  0  0  0  0  0  0  0  0  0
   12.7206   -1.2418   22.1996 C   0  0  0  0  0  0  0  0  0  0  0  0
   13.6403   -1.3027   21.5300 N   0  0  0  0  0  0  0  0  0  0  0  0
    8.0880   -1.2304   25.5271 N   0  0  0  0  0  0  0  0  0  0  0  0
    7.2009   -1.0870   25.1249 H   0  0  0  0  0  0  0  0  0  0  0  0
    7.7787   -2.9460   27.1696 C   0  0  0  0  0  0  0  0  0  0  0  0
    8.1641   -1.4910   26.9488 C   0  0  0  0  0  0  0  0  0  0  0  0
  1  6  1  0  0  0
 12 11  1  0  0  0
  2  9  1  0  0  0
  3  2  1  0  0  0
  4  3  2  0  0  0
  5  4  1  0  0  0
  5  1  2  0  0  0
  7  5  1  0  0  0
  9 12  1  0  0  0
  9 10  1  0  0  0
  8  7  3  0  0  0
  6  2  2  0  0  0
M  END
> <minimizedAffinity>
-3.19559

$$$$
5R82_ligand.pdb


 12 12  0  0  0  0  0  0  0  0999 V2000
    8.3931   -0.8493   24.9753 C   0  0  0  0  0  0  0  0  0  0  0  0
    9.5371   -0.9136   22.9739 C   0  0  0  0  0  0  0  0  0  0  0  0
   10.7235   -0.5695   23.6103 C   0  0  0  0  0  0  0  0  0  0  0  0
   10.7310   -0.3624   24.9816 C   0  0  0  0  0  0  0  0  0  0  0  0
    9.5379   -0.5053   25.6812 C   0  0  0  0  0  0  0  0  0  0  0  0
    8.4198   -1.0392   23.6606 N   0  0  0  0  0  0  0  0  0  0  0  0
    9.4851   -0.3054   27.1905 C   0  0  0  0  0  0  0  0  0  0  0  0
    9.4318   -0.1471   28.3174 N   0  0  0  0  0  0  0  0  0  0  0  0
    9.4662   -1.1246   21.5459 N   0  0  0  0  0  0  0  0  0  0  0  0
   10.1192   -1.7329   21.1301 H   0  0  0  0  0  0  0  0  0  0  0  0
    8.4428    0.9878   21.0691 C   0  0  0  0  0  0  0  0  0  0  0  0
    8.4834   -0.4866   20.6962 C   0  0  0  0  0  0  0  0  0  0  0  0
  1  6  1  0  0  0
 12 11  1  0  0  0
  2  9  1  0  0  0
  3  2  1  0  0  0
  4  3  2  0  0  0
  5  4  1  0  0  0
  5  1  2  0  0  0
  7  5  1  0  0  0
  9 12  1  0  0  0
  9 10  1  0  0  0
  8  7  3  0  0  0
  6  2  2  0  0  0
M  END
> <minimizedAffinity>
-3.18175

$$$$
5R82_ligand.pdb


 12 12  0  0  0  0  0  0  0  0999 V2000
   10.0405   -0.2151   25.7001 C   0  0  0  0  0  0  0  0  0  0  0  0
   10.5519   -1.7916   24.0964 C   0  0  0  0  0  0  0  0  0  0  0  0
    9.6560   -2.6928   24.6585 C   0  0  0  0  0  0  0  0  0  0  0  0
    8.9301   -2.3277   25.7824 C   0  0  0  0  0  0  0  0  0  0  0  0
    9.1267   -1.0590   26.3164 C   0  0  0  0  0  0  0  0  0  0  0  0
   10.7213   -0.5966   24.6248 N   0  0  0  0  0  0  0  0  0  0  0  0
    8.3485   -0.5943   27.5409 C   0  0  0  0  0  0  0  0  0  0  0  0
    7.7801   -0.2395   28.4622 N   0  0  0  0  0  0  0  0  0  0  0  0
   11.3471   -2.1234   22.9362 N   0  0  0  0  0  0  0  0  0  0  0  0
   11.4888   -3.0740   22.7228 H   0  0  0  0  0  0  0  0  0  0  0  0
   13.4535   -1.3244   22.1228 C   0  0  0  0  0  0  0  0  0  0  0  0
   11.9457   -1.1284   22.0721 C   0  0  0  0  0  0  0  0  0  0  0  0
  1  6  1  0  0  0
 12 11  1  0  0  0
  2  9  1  0  0  0
  3  2  1  0  0  0
  4  3  2  0  0  0
  5  4  1  0  0  0
  5  1  2  0  0  0
  7  5  1  0  0  0
  9 12  1  0  0  0
  9 10  1  0  0  0
  8  7  3  0  0  0
  6  2  2  0  0  0
M  END
> <minimizedAffinity>
-3.17342

$$$$
5R82_ligand.pdb


 12 12  0  0  0  0  0  0  0  0999 V2000
   10.4458   -0.3210   24.8424 C   0  0  0  0  0  0  0  0  0  0  0  0
    9.2968   -0.9187   22.9342 C   0  0  0  0  0  0  0  0  0  0  0  0
    8.1575   -1.2031   23.6772 C   0  0  0  0  0  0  0  0  0  0  0  0
    8.1764   -1.0338   25.0535 C   0  0  0  0  0  0  0  0  0  0  0  0
    9.3480   -0.5823   25.6509 C   0  0  0  0  0  0  0  0  0  0  0  0
   10.3950   -0.4952   23.5262 N   0  0  0  0  0  0  0  0  0  0  0  0
    9.4265   -0.3626   27.1564 C   0  0  0  0  0  0  0  0  0  0  0  0
    9.4982   -0.1886   28.2799 N   0  0  0  0  0  0  0  0  0  0  0  0
    9.3402   -1.0927   21.5001 N   0  0  0  0  0  0  0  0  0  0  0  0
   10.0304   -1.6840   21.1216 H   0  0  0  0  0  0  0  0  0  0  0  0
    8.3369    1.0230   20.9963 C   0  0  0  0  0  0  0  0  0  0  0  0
    8.4201   -0.4413   20.5924 C   0  0  0  0  0  0  0  0  0  0  0  0
  1  6  1  0  0  0
 12 11  1  0  0  0
  2  9  1  0  0  0
  3  2  1  0  0  0
  4  3  2  0  0  0
  5  4  1  0  0  0
  5  1  2  0  0  0
  7  5  1  0  0  0
  9 12  1  0  0  0
  9 10  1  0  0  0
  8  7  3  0  0  0
  6  2  2  0  0  0
M  END
> <minimizedAffinity>
-2.99939

$$$$
5R82_ligand.pdb


 12 12  0  0  0  0  0  0  0  0999 V2000
   10.1046   -0.4584   24.1984 C   0  0  0  0  0  0  0  0  0  0  0  0
    9.0488   -0.8621   26.2086 C   0  0  0  0  0  0  0  0  0  0  0  0
    7.8419   -1.0915   25.5591 C   0  0  0  0  0  0  0  0  0  0  0  0
    7.7787   -0.9994   24.1768 C   0  0  0  0  0  0  0  0  0  0  0  0
    8.9371   -0.6750   23.4794 C   0  0  0  0  0  0  0  0  0  0  0  0
   10.1308   -0.5530   25.5234 N   0  0  0  0  0  0  0  0  0  0  0  0
    8.9347   -0.5734   21.9593 C   0  0  0  0  0  0  0  0  0  0  0  0
    8.9294   -0.5135   20.8217 N   0  0  0  0  0  0  0  0  0  0  0  0
    9.1699   -0.9274   27.6473 N   0  0  0  0  0  0  0  0  0  0  0  0
    8.9787   -1.7835   28.0943 H   0  0  0  0  0  0  0  0  0  0  0  0
    8.4249    1.2164   28.4129 C   0  0  0  0  0  0  0  0  0  0  0  0
    9.5581    0.2027   28.4641 C   0  0  0  0  0  0  0  0  0  0  0  0
  1  6  1  0  0  0
 12 11  1  0  0  0
  2  9  1  0  0  0
  3  2  1  0  0  0
  4  3  2  0  0  0
  5  4  1  0  0  0
  5  1  2  0  0  0
  7  5  1  0  0  0
  9 12  1  0  0  0
  9 10  1  0  0  0
  8  7  3  0  0  0
  6  2  2  0  0  0
M  END
> <minimizedAffinity>
-2.74855

$$$$
