5R82_ligand.pdb


 12 12  0  0  0  0  0  0  0  0999 V2000
   10.0629    1.1026   22.2901 C   0  0  0  0  0  0  0  0  0  0  0  0
   12.0363    1.9761   23.1032 C   0  0  0  0  0  0  0  0  0  0  0  0
   12.4985    0.7051   23.4223 C   0  0  0  0  0  0  0  0  0  0  0  0
   11.7034   -0.4000   23.1581 C   0  0  0  0  0  0  0  0  0  0  0  0
   10.4559   -0.1971   22.5785 C   0  0  0  0  0  0  0  0  0  0  0  0
   10.8484    2.1402   22.5575 N   0  0  0  0  0  0  0  0  0  0  0  0
    9.5431   -1.3720   22.2508 C   0  0  0  0  0  0  0  0  0  0  0  0
    8.8474   -2.2404   22.0064 N   0  0  0  0  0  0  0  0  0  0  0  0
   12.8139    3.1645   23.3713 N   0  0  0  0  0  0  0  0  0  0  0  0
   13.7541    3.0568   23.6425 H   0  0  0  0  0  0  0  0  0  0  0  0
   13.1078    5.2448   22.2212 C   0  0  0  0  0  0  0  0  0  0  0  0
   12.2797    4.5052   23.2611 C   0  0  0  0  0  0  0  0  0  0  0  0
  1  6  1  0  0  0
 12 11  1  0  0  0
  2  9  1  0  0  0
  3  2  1  0  0  0
  4  3  2  0  0  0
  5  4  1  0  0  0
  5  1  2  0  0  0
  7  5  1  0  0  0
  9 12  1  0  0  0
  9 10  1  0  0  0
  8  7  3  0  0  0
  6  2  2  0  0  0
M  END
> <minimizedAffinity>
-4.24971

$$$$
5R82_ligand.pdb


 12 12  0  0  0  0  0  0  0  0999 V2000
    9.8920    1.7304   22.2099 C   0  0  0  0  0  0  0  0  0  0  0  0
    8.2967    0.6244   20.9649 C   0  0  0  0  0  0  0  0  0  0  0  0
    8.8713   -0.6035   21.2701 C   0  0  0  0  0  0  0  0  0  0  0  0
    9.9972   -0.6517   22.0784 C   0  0  0  0  0  0  0  0  0  0  0  0
   10.5205    0.5432   22.5599 C   0  0  0  0  0  0  0  0  0  0  0  0
    8.8151    1.7419   21.4318 N   0  0  0  0  0  0  0  0  0  0  0  0
   11.7466    0.5544   23.4640 C   0  0  0  0  0  0  0  0  0  0  0  0
   12.6706    0.5738   24.1301 N   0  0  0  0  0  0  0  0  0  0  0  0
    7.1337    0.7364   20.1141 N   0  0  0  0  0  0  0  0  0  0  0  0
    6.3720    1.2732   20.4318 H   0  0  0  0  0  0  0  0  0  0  0  0
    5.9278    0.8040   18.0457 C   0  0  0  0  0  0  0  0  0  0  0  0
    7.0326    0.0992   18.8185 C   0  0  0  0  0  0  0  0  0  0  0  0
  1  6  1  0  0  0
 12 11  1  0  0  0
  2  9  1  0  0  0
  3  2  1  0  0  0
  4  3  2  0  0  0
  5  4  1  0  0  0
  5  1  2  0  0  0
  7  5  1  0  0  0
  9 12  1  0  0  0
  9 10  1  0  0  0
  8  7  3  0  0  0
  6  2  2  0  0  0
M  END
> <minimizedAffinity>
-4.22414

$$$$
5R82_ligand.pdb


 12 12  0  0  0  0  0  0  0  0999 V2000
    7.8320   -2.0540   22.2008 C   0  0  0  0  0  0  0  0  0  0  0  0
    6.9300   -0.5374   20.7159 C   0  0  0  0  0  0  0  0  0  0  0  0
    8.1384    0.1440   20.6365 C   0  0  0  0  0  0  0  0  0  0  0  0
    9.2269   -0.3024   21.3707 C   0  0  0  0  0  0  0  0  0  0  0  0
    9.0706   -1.4279   22.1721 C   0  0  0  0  0  0  0  0  0  0  0  0
    6.8084   -1.5994   21.4860 N   0  0  0  0  0  0  0  0  0  0  0  0
   10.2331   -1.9754   22.9906 C   0  0  0  0  0  0  0  0  0  0  0  0
   11.1004   -2.3724   23.6134 N   0  0  0  0  0  0  0  0  0  0  0  0
    5.7581   -0.1079   19.9870 N   0  0  0  0  0  0  0  0  0  0  0  0
    5.0213    0.3086   20.4899 H   0  0  0  0  0  0  0  0  0  0  0  0
    5.8554    1.1030   17.9228 C   0  0  0  0  0  0  0  0  0  0  0  0
    5.6134   -0.2595   18.5549 C   0  0  0  0  0  0  0  0  0  0  0  0
  1  6  1  0  0  0
 12 11  1  0  0  0
  2  9  1  0  0  0
  3  2  1  0  0  0
  4  3  2  0  0  0
  5  4  1  0  0  0
  5  1  2  0  0  0
  7  5  1  0  0  0
  9 12  1  0  0  0
  9 10  1  0  0  0
  8  7  3  0  0  0
  6  2  2  0  0  0
M  END
> <minimizedAffinity>
-4.08817

$$$$
5R82_ligand.pdb


 12 12  0  0  0  0  0  0  0  0999 V2000
    9.3015    2.0002   22.5619 C   0  0  0  0  0  0  0  0  0  0  0  0
    9.6990   -0.1216   21.7502 C   0  0  0  0  0  0  0  0  0  0  0  0
    8.5196   -0.0906   21.0160 C   0  0  0  0  0  0  0  0  0  0  0  0
    7.7113    1.0352   21.0642 C   0  0  0  0  0  0  0  0  0  0  0  0
    8.1110    2.1062   21.8558 C   0  0  0  0  0  0  0  0  0  0  0  0
   10.0524    0.9061   22.4950 N   0  0  0  0  0  0  0  0  0  0  0  0
    7.2733    3.3760   21.9383 C   0  0  0  0  0  0  0  0  0  0  0  0
    6.6559    4.3305   22.0128 N   0  0  0  0  0  0  0  0  0  0  0  0
   10.5713   -1.2739   21.7517 N   0  0  0  0  0  0  0  0  0  0  0  0
   10.5916   -1.8461   20.9508 H   0  0  0  0  0  0  0  0  0  0  0  0
   10.5748   -2.4448   23.8412 C   0  0  0  0  0  0  0  0  0  0  0  0
   11.4167   -1.6291   22.8716 C   0  0  0  0  0  0  0  0  0  0  0  0
  1  6  1  0  0  0
 12 11  1  0  0  0
  2  9  1  0  0  0
  3  2  1  0  0  0
  4  3  2  0  0  0
  5  4  1  0  0  0
  5  1  2  0  0  0
  7  5  1  0  0  0
  9 12  1  0  0  0
  9 10  1  0  0  0
  8  7  3  0  0  0
  6  2  2  0  0  0
M  END
> <minimizedAffinity>
-3.94603

$$$$
5R82_ligand.pdb


 12 12  0  0  0  0  0  0  0  0999 V2000
    8.4250   -3.2703   23.3501 C   0  0  0  0  0  0  0  0  0  0  0  0
    9.4197   -1.6330   22.0662 C   0  0  0  0  0  0  0  0  0  0  0  0
   10.5695   -1.6834   22.8449 C   0  0  0  0  0  0  0  0  0  0  0  0
   10.6367   -2.5666   23.9120 C   0  0  0  0  0  0  0  0  0  0  0  0
    9.5388   -3.3794   24.1714 C   0  0  0  0  0  0  0  0  0  0  0  0
    8.3922   -2.4122   22.3362 N   0  0  0  0  0  0  0  0  0  0  0  0
    9.5578   -4.3799   25.3201 C   0  0  0  0  0  0  0  0  0  0  0  0
    9.5593   -5.1201   26.1860 N   0  0  0  0  0  0  0  0  0  0  0  0
    9.2868   -0.7209   20.9530 N   0  0  0  0  0  0  0  0  0  0  0  0
    9.9701   -0.7451   20.2446 H   0  0  0  0  0  0  0  0  0  0  0  0
    7.6058    0.0609   19.4365 C   0  0  0  0  0  0  0  0  0  0  0  0
    8.1997    0.2264   20.8272 C   0  0  0  0  0  0  0  0  0  0  0  0
  1  6  1  0  0  0
 12 11  1  0  0  0
  2  9  1  0  0  0
  3  2  1  0  0  0
  4  3  2  0  0  0
  5  4  1  0  0  0
  5  1  2  0  0  0
  7  5  1  0  0  0
  9 12  1  0  0  0
  9 10  1  0  0  0
  8  7  3  0  0  0
  6  2  2  0  0  0
M  END
> <minimizedAffinity>
-3.94523

$$$$
5R82_ligand.pdb


 12 12  0  0  0  0  0  0  0  0999 V2000
    7.1715   -0.2215   21.2697 C   0  0  0  0  0  0  0  0  0  0  0  0
    9.3951   -0.6395   21.7162 C   0  0  0  0  0  0  0  0  0  0  0  0
    9.6353    0.7134   21.9235 C   0  0  0  0  0  0  0  0  0  0  0  0
    8.5950    1.6217   21.7978 C   0  0  0  0  0  0  0  0  0  0  0  0
    7.3330    1.1436   21.4628 C   0  0  0  0  0  0  0  0  0  0  0  0
    8.1900   -1.0652   21.3963 N   0  0  0  0  0  0  0  0  0  0  0  0
    6.1471    2.0900   21.3247 C   0  0  0  0  0  0  0  0  0  0  0  0
    5.2693    2.8072   21.2113 N   0  0  0  0  0  0  0  0  0  0  0  0
   10.4439   -1.6288   21.8167 N   0  0  0  0  0  0  0  0  0  0  0  0
   10.6213   -2.2030   21.0369 H   0  0  0  0  0  0  0  0  0  0  0  0
   10.3985   -2.5759   24.0162 C   0  0  0  0  0  0  0  0  0  0  0  0
   11.2467   -1.8177   23.0061 C   0  0  0  0  0  0  0  0  0  0  0  0
  1  6  1  0  0  0
 12 11  1  0  0  0
  2  9  1  0  0  0
  3  2  1  0  0  0
  4  3  2  0  0  0
  5  4  1  0  0  0
  5  1  2  0  0  0
  7  5  1  0  0  0
  9 12  1  0  0  0
  9 10  1  0  0  0
  8  7  3  0  0  0
  6  2  2  0  0  0
M  END
> <minimizedAffinity>
-3.92954

$$$$
5R82_ligand.pdb


 12 12  0  0  0  0  0  0  0  0999 V2000
   10.5193    1.6980   22.4520 C   0  0  0  0  0  0  0  0  0  0  0  0
   10.7816   -0.5928   22.4045 C   0  0  0  0  0  0  0  0  0  0  0  0
   12.0875   -0.4795   22.8657 C   0  0  0  0  0  0  0  0  0  0  0  0
   12.6158    0.7757   23.1278 C   0  0  0  0  0  0  0  0  0  0  0  0
   11.8132    1.8912   22.9160 C   0  0  0  0  0  0  0  0  0  0  0  0
   10.0440    0.4813   22.2091 N   0  0  0  0  0  0  0  0  0  0  0  0
   12.3316    3.2954   23.1996 C   0  0  0  0  0  0  0  0  0  0  0  0
   12.7331    4.3419   23.4035 N   0  0  0  0  0  0  0  0  0  0  0  0
   10.1847   -1.8730   22.0986 N   0  0  0  0  0  0  0  0  0  0  0  0
   10.5234   -2.3729   21.3210 H   0  0  0  0  0  0  0  0  0  0  0  0
    9.7138   -2.9444   24.1883 C   0  0  0  0  0  0  0  0  0  0  0  0
    9.1140   -2.4570   22.8780 C   0  0  0  0  0  0  0  0  0  0  0  0
  1  6  1  0  0  0
 12 11  1  0  0  0
  2  9  1  0  0  0
  3  2  1  0  0  0
  4  3  2  0  0  0
  5  4  1  0  0  0
  5  1  2  0  0  0
  7  5  1  0  0  0
  9 12  1  0  0  0
  9 10  1  0  0  0
  8  7  3  0  0  0
  6  2  2  0  0  0
M  END
> <minimizedAffinity>
-3.92170

$$$$
5R82_ligand.pdb


 12 12  0  0  0  0  0  0  0  0999 V2000
    6.3265   -5.3290   26.2083 C   0  0  0  0  0  0  0  0  0  0  0  0
    7.9151   -4.9533   24.5793 C   0  0  0  0  0  0  0  0  0  0  0  0
    8.9354   -5.0268   25.5197 C   0  0  0  0  0  0  0  0  0  0  0  0
    8.6256   -5.2627   26.8507 C   0  0  0  0  0  0  0  0  0  0  0  0
    7.2897   -5.4173   27.2041 C   0  0  0  0  0  0  0  0  0  0  0  0
    6.6571   -5.1003   24.9419 N   0  0  0  0  0  0  0  0  0  0  0  0
    6.8871   -5.6931   28.6473 C   0  0  0  0  0  0  0  0  0  0  0  0
    6.5786   -5.8846   29.7271 N   0  0  0  0  0  0  0  0  0  0  0  0
    8.1774   -4.6929   23.1821 N   0  0  0  0  0  0  0  0  0  0  0  0
    9.1136   -4.6055   22.8904 H   0  0  0  0  0  0  0  0  0  0  0  0
    6.9834   -5.8968   21.4904 C   0  0  0  0  0  0  0  0  0  0  0  0
    7.1327   -4.5542   22.1899 C   0  0  0  0  0  0  0  0  0  0  0  0
  1  6  1  0  0  0
 12 11  1  0  0  0
  2  9  1  0  0  0
  3  2  1  0  0  0
  4  3  2  0  0  0
  5  4  1  0  0  0
  5  1  2  0  0  0
  7  5  1  0  0  0
  9 12  1  0  0  0
  9 10  1  0  0  0
  8  7  3  0  0  0
  6  2  2  0  0  0
M  END
> <minimizedAffinity>
-3.91287

$$$$
5R82_ligand.pdb


 12 12  0  0  0  0  0  0  0  0999 V2000
   10.7213   -2.2692   23.7558 C   0  0  0  0  0  0  0  0  0  0  0  0
    8.6660   -2.7386   22.8210 C   0  0  0  0  0  0  0  0  0  0  0  0
    8.7858   -1.6616   21.9512 C   0  0  0  0  0  0  0  0  0  0  0  0
    9.9224   -0.8681   21.9947 C   0  0  0  0  0  0  0  0  0  0  0  0
   10.9139   -1.1787   22.9188 C   0  0  0  0  0  0  0  0  0  0  0  0
    9.6193   -3.0085   23.6894 N   0  0  0  0  0  0  0  0  0  0  0  0
   12.1917   -0.3537   23.0050 C   0  0  0  0  0  0  0  0  0  0  0  0
   13.1383    0.2764   23.0739 N   0  0  0  0  0  0  0  0  0  0  0  0
    7.4973   -3.5889   22.8322 N   0  0  0  0  0  0  0  0  0  0  0  0
    6.6261   -3.1891   22.6078 H   0  0  0  0  0  0  0  0  0  0  0  0
    7.3107   -5.7737   21.8685 C   0  0  0  0  0  0  0  0  0  0  0  0
    7.5435   -4.9987   23.1568 C   0  0  0  0  0  0  0  0  0  0  0  0
  1  6  1  0  0  0
 12 11  1  0  0  0
  2  9  1  0  0  0
  3  2  1  0  0  0
  4  3  2  0  0  0
  5  4  1  0  0  0
  5  1  2  0  0  0
  7  5  1  0  0  0
  9 12  1  0  0  0
  9 10  1  0  0  0
  8  7  3  0  0  0
  6  2  2  0  0  0
M  END
> <minimizedAffinity>
-3.91237

$$$$
